<?xml version="1.0" encoding="UTF-8" standalone="yes" ?>
<CodeBlocks_layout_file>
	<ActiveTarget name="Release" />
	<File name="bpred.c" open="0" top="0" tabpos="0">
		<Cursor position="3551" topLine="68" />
	</File>
	<File name="bpred.h" open="0" top="0" tabpos="0">
		<Cursor position="0" topLine="260" />
	</File>
	<File name="cache.h" open="0" top="0" tabpos="0">
		<Cursor position="0" topLine="203" />
	</File>
	<File name="endian.h" open="0" top="0" tabpos="0">
		<Cursor position="2772" topLine="45" />
	</File>
	<File name="host.h" open="0" top="0" tabpos="0">
		<Cursor position="3569" topLine="75" />
	</File>
	<File name="machine.def" open="1" top="0" tabpos="0">
		<Cursor position="13947" topLine="376" />
	</File>
	<File name="machine.h" open="0" top="0" tabpos="0">
		<Cursor position="7850" topLine="244" />
	</File>
	<File name="memory.h" open="0" top="0" tabpos="0">
		<Cursor position="6986" topLine="163" />
	</File>
	<File name="resource.c" open="0" top="0" tabpos="0">
		<Cursor position="3749" topLine="86" />
	</File>
	<File name="sim-bpred.c" open="0" top="0" tabpos="0">
		<Cursor position="14368" topLine="424" />
	</File>
	<File name="sim-fast.c" open="1" top="1" tabpos="0">
		<Cursor position="12396" topLine="58" />
	</File>
	<File name="sim-outorder.c" open="0" top="0" tabpos="0">
		<Cursor position="104546" topLine="3347" />
	</File>
	<File name="sim-pipe-withstall.c" open="1" top="0" tabpos="0">
		<Cursor position="1894" topLine="309" />
	</File>
	<File name="sim-pipe.c" open="0" top="0" tabpos="0">
		<Cursor position="8590" topLine="14" />
	</File>
	<File name="sim-pipe.h" open="1" top="0" tabpos="0">
		<Cursor position="383" topLine="0" />
	</File>
	<File name="sim.h" open="0" top="0" tabpos="0">
		<Cursor position="2564" topLine="38" />
	</File>
	<File name="syscall.h" open="0" top="0" tabpos="0">
		<Cursor position="4039" topLine="74" />
	</File>
	<File name="target-pisa/pisa.def" open="0" top="0" tabpos="0">
		<Cursor position="37967" topLine="1058" />
	</File>
	<File name="target-pisa/pisa.h" open="0" top="0" tabpos="0">
		<Cursor position="7842" topLine="244" />
	</File>
	<File name="target-pisa/syscall.c" open="0" top="0" tabpos="0">
		<Cursor position="16327" topLine="650" />
	</File>
</CodeBlocks_layout_file>
