<?xml version="1.0" encoding="UTF-8" standalone="yes" ?>
<CodeBlocks_layout_file>
	<ActiveTarget name="Release" />
	<File name="bpred.c" open="0" top="0" tabpos="0">
		<Cursor position="3551" topLine="68" />
	</File>
	<File name="bpred.h" open="0" top="0" tabpos="0">
		<Cursor position="0" topLine="260" />
	</File>
	<File name="cache.h" open="0" top="0" tabpos="0">
		<Cursor position="0" topLine="203" />
	</File>
	<File name="endian.h" open="0" top="0" tabpos="0">
		<Cursor position="2772" topLine="45" />
	</File>
	<File name="host.h" open="0" top="0" tabpos="0">
		<Cursor position="3569" topLine="75" />
	</File>
	<File name="machine.def" open="0" top="0" tabpos="3">
		<Cursor position="4400" topLine="83" />
	</File>
	<File name="machine.h" open="0" top="0" tabpos="0">
		<Cursor position="6276" topLine="183" />
	</File>
	<File name="memory.h" open="0" top="0" tabpos="0">
		<Cursor position="6986" topLine="163" />
	</File>
	<File name="resource.c" open="0" top="0" tabpos="0">
		<Cursor position="3749" topLine="86" />
	</File>
	<File name="sim-bpred.c" open="0" top="0" tabpos="0">
		<Cursor position="14340" topLine="424" />
	</File>
	<File name="sim-fast.c" open="0" top="0" tabpos="0">
		<Cursor position="13407" topLine="428" />
	</File>
	<File name="sim-outorder.c" open="0" top="0" tabpos="0">
		<Cursor position="104412" topLine="3342" />
	</File>
	<File name="sim-pipe-withstall.c" open="0" top="0" tabpos="2">
		<Cursor position="8972" topLine="336" />
	</File>
	<File name="sim-pipe.c" open="0" top="0" tabpos="4">
		<Cursor position="1741" topLine="53" />
	</File>
	<File name="sim-pipe.h" open="0" top="0" tabpos="1">
		<Cursor position="156" topLine="6" />
	</File>
	<File name="sim-safe.c" open="0" top="0" tabpos="0">
		<Cursor position="10440" topLine="310" />
	</File>
	<File name="sim.h" open="0" top="0" tabpos="0">
		<Cursor position="2564" topLine="38" />
	</File>
	<File name="syscall.h" open="0" top="0" tabpos="0">
		<Cursor position="4039" topLine="74" />
	</File>
	<File name="target-pisa/pisa.c" open="0" top="0" tabpos="0">
		<Cursor position="14546" topLine="660" />
	</File>
	<File name="target-pisa/pisa.def" open="0" top="0" tabpos="0">
		<Cursor position="37967" topLine="1058" />
	</File>
	<File name="target-pisa/pisa.h" open="0" top="0" tabpos="5">
		<Cursor position="7784" topLine="245" />
	</File>
	<File name="target-pisa/syscall.c" open="0" top="0" tabpos="0">
		<Cursor position="16327" topLine="650" />
	</File>
</CodeBlocks_layout_file>
